
**** 11/21/24 20:51:14 *** PSpice 24.1.0 (4 September 2024) *** ID# 0 ********

 ** Profile: "SCHEMATIC1-Iomax"  [ C:\Users\denis\Desktop\eu\1\1\1\incercare3-pspicefiles\schematic1\iomax.sim ] 


 ****     CIRCUIT DESCRIPTION


******************************************************************************




** Creating circuit file "Iomax.cir" 
** WARNING: THIS AUTOMATICALLY GENERATED FILE MAY BE OVERWRITTEN BY SUBSEQUENT SIMULATIONS

*Libraries: 
* Profile Libraries :
* Local Libraries :
.LIB "C:/Users/denis/Documents/anul III/anul III/sem1/P1 - Draghici/eu/lib_modelepspice_anexa_1/lib_modelepspice_anexa_1/modele_a1_"
+ "lib/bzx84c2v7.lib" 
.LIB "C:/Users/denis/Documents/anul III/anul III/sem1/P1 - Draghici/eu/Lib_ModelePSpice_Anexa_1/Lib_ModelePSpice_Anexa_1/Modele_A1_"
+ "lib/BC856B.lib" 
.LIB "C:/Users/denis/Documents/anul III/anul III/sem1/P1 - Draghici/eu/Lib_ModelePSpice_Anexa_1/Lib_ModelePSpice_Anexa_1/Modele_A1_"
+ "lib/BC846B.lib" 
.LIB "c:/users/denis/documents/anul iii/anul iii/sem1/p1 - draghici/eu/lib_modelepspice_anexa_1/lib_modelepspice_anexa_1/modele_a1_"
+ "lib/bc807-25.lib" 
* From [PSPICE NETLIST] section of C:\Users\denis\AppData\Roaming\SPB_Data\cdssetup\OrCAD_PSpice\24.1.0\PSpice.ini file:
.lib "nom.lib" 

*Analysis directives: 
.DC LIN I_I1 0.3 0.46 0.001 
.OPTIONS ADVCONV
.PROBE64 V(alias(*)) I(alias(*)) W(alias(*)) D(alias(*)) NOISE(alias(*)) 
.INC "..\SCHEMATIC1.net" 



**** INCLUDING SCHEMATIC1.net ****
* source INCERCARE3
R_R1         N00707 N30997  22k TC=0,0 
R_R5         N00296 N00866  1K TC=0,0 
R_R8         0 N00895  100 TC=0,0 
R_R10         N01010 N00296  33 TC=0,0 
R_R11         N01014 N00296  33 TC=0,0 
R_R16         N01103 N47246  1 TC=0,0 
X_P1         N08738 N00707 N00707 POT PARAMS: SET=0 VALUE=10k
R_R17         N09220 N08738  1k TC=0,0 
R_R18         0 N09224  510 TC=0,0 
X_P2         N09224 N09228 N09220 POT PARAMS: SET=0.83 VALUE=5k
D_D2         0 N08738 BZX84-C2V7 
Q_Q2          N01018 N00707 N00974 QBC846B 
Q_Q1          N01051 N01073 N00974 QBC846B 
Q_Q4          N00866 N00866 N00895 QBC846B 
Q_Q10          N01051 N09228 0 QBC846B 
Q_Q7          N01051 N01103 N01073 QBC846B 
Q_Q8          N01085 N01051 N01103 QBC846B 
Q_Q3         N00974 N00866 N26783 QBC846B 
Q_Q5         N01051 N01018 N01014 QBC807-25 
Q_Q6         N01018 N01018 N01010 QBC807-25 
Q_Q9         N01103 N01085 N00296 QBC807-25 
R_R20         0 N26783  22 TC=0,0 
R_R26         N01073 0  1000k TC=0,0 
R_R27         N01073 0  2000k TC=0,0 
X_D3         N00296 N54444 LED PARAMS: IS=3.7602e-29 RS=1  BV=5 IBV=5e-6       
+   
R_R28         N30997 0  2.7k TC=0,0 
R_R29         N00296 N55538  100 TC=0,0 
R_R32         N54444 0  68 TC=0,0 
R_R33         N47246 N01073  1 TC=0,0 
C_C1         0 N01073  100n  TC=0,0 
V_V1         N00296 0 4
R_R34         N55538 N08738  100 TC=0,0 
I_I1         N01073 0 DC 1Adc  
X_U1         0 N01073 DIODE_PWL2 PARAMS:  X0=-63.497 Y0=-5.17456E-008
+  X1=0.696748095223755 Y1=5.67800813207086E-010 X2=0.846434163633137
+  Y2=0.0431080102716564

**** RESUMING Iomax.cir ****
.END


ERROR(ORPSIM-15108): Subcircuit DIODE_PWL2 used by X_U1 is undefined
